LTspice 24.0.12 for Windows
Circuit: * C:\Users\aadip\OneDrive - University of Waterloo\2nd Year\2B\BME 294\Lab\project\schematic.asc
Start Time: Tue Jul 23 18:31:51 2024
solver = Normal
Maximum thread count: 12
tnom = 27
temp = 27
method = modified trap
Direct Newton iteration failed to find .op point.  (Use ".option noopiter" to skip.)
Starting Gmin stepping
Gmin = 10
Gmin = 1.07374
Gmin = 0.115292
Gmin = 0.0123794
Gmin = 0.00132923
Gmin = 0.000142725
vernier = 0.5
Gmin = 3.28467e-05
vernier = 0.666667
vernier = 0.333333
vernier = 0.166667
Gmin = 1.8894e-05
vernier = 0.222222
vernier = 0.111111
vernier = 0.148148
vernier = 0.074074
Gmin = 1.58161e-05
vernier = 0.0987653
vernier = 0.0493827
vernier = 0.0246913
vernier = 0.0123457
vernier = 0.00617283
Gmin = 1.44296e-05
vernier = 0.00308642
vernier = 0.00154321
vernier = 0.000771604
vernier = 0.000578703
vernier = 0.000771604
Gmin = 1.44164e-05
vernier = 0.00102881
Gmin = 1.4384e-05
vernier = 0.00137174
vernier = 0.00182899
Gmin = 1.43311e-05
vernier = 0.00243865
vernier = 0.00325153
Gmin = 1.42476e-05
vernier = 0.00433537
Gmin = 1.41132e-05
vernier = 0.00578049
vernier = 0.00770732
Gmin = 1.38958e-05
vernier = 0.0102764
vernier = 0.0137019
Gmin = 1.35583e-05
vernier = 0.0182692
Gmin = 1.30282e-05
vernier = 0.0243589
vernier = 0.0324785
Gmin = 1.22053e-05
vernier = 0.0433047
vernier = 0.0577396
Gmin = 1.10085e-05
vernier = 0.0769861
vernier = 0.0384931
vernier = 0.0192465
vernier = 0.00962327
vernier = 0.00481163
Gmin = 1.02473e-05
vernier = 0.00641551
Gmin = 1.01046e-05
vernier = 0.00855401
vernier = 0.0114053
Gmin = 9.87521e-06
vernier = 0.0152071
vernier = 0.0202762
Gmin = 9.52255e-06
vernier = 0.0270349
Gmin = 8.97732e-06
vernier = 0.0360465
vernier = 0.048062
Gmin = 8.15235e-06
vernier = 0.0640826
vernier = 0.0854435
Gmin = 7.00046e-06
vernier = 0.0427217
vernier = 0.0213609
vernier = 0.0106804
vernier = 0.00534022
vernier = 0.00267011
vernier = 0.00133505
vernier = 0.000667527
vernier = 0.000500645
Gmin = 0
Gmin stepping failed

Starting source stepping with srcstepmethod=0
Source Step = 3.0303%
Source Step = 33.3333%
Source Step = 63.6364%
Source Step = 93.9394%
Source stepping succeeded in finding the operating point.

Total elapsed time: 3.705 seconds.

